Program Version,EnergyPlus, Version 25.1.0-68a4a7c774, YMD=2025.12.16 22:26,
   ** Severe  ** Line: 102 Index: 5 - Object contains more field values than maximum number of IDD fields and is not extensible.
   ** Severe  ** Line: 102 Index: 5 - Error parsing "ScheduleTypeLimits". Error in following line.
   ** Severe  ** ~~~ Zone,TestZone,0,0,0,0,1,1,3,100
   ** Severe  ** Line: 102 Index: 13 - "TestZone" is not a valid Object Type.
   **  Fatal  ** Errors occurred on processing input file. Preceding condition(s) cause termination.
   ...Summary of Errors that led to program termination:
   ..... Reference severe error count=4
   ..... Last severe error=Line: 102 Index: 13 - "TestZone" is not a valid Object Type.
   ************* Warning:  Node connection errors not checked - most system input has not been read (see previous warning).
   ************* Fatal error -- final processing.  Program exited before simulations began.  See previous error messages.
   ************* EnergyPlus Warmup Error Summary. During Warmup: 0 Warning; 0 Severe Errors.
   ************* EnergyPlus Sizing Error Summary. During Sizing: 0 Warning; 0 Severe Errors.
   ************* EnergyPlus Terminated--Fatal Error Detected. 0 Warning; 4 Severe Errors; Elapsed Time=00hr 00min  0.04sec
