Program Version,EnergyPlus, Version 25.1.0-68a4a7c774, YMD=2025.12.16 22:28,
   ** Severe  ** <root>[ZoneHVAC:IdealLoadsAirSystem][IL1][cooling_sensible_heat_ratio] - Value type "string" for input "ConstantSupplyHumidityRatio" not permitted by 'type' constraint.
   ** Severe  ** <root>[ZoneHVAC:IdealLoadsAirSystem][IL1][demand_controlled_ventilation_type] - "OA1" - Failed to match against any enum values.
   ** Severe  ** <root>[ZoneHVAC:IdealLoadsAirSystem][IL1][heat_recovery_type] - "NoEconomizer" - Failed to match against any enum values.
   ** Severe  ** <root>[ZoneHVAC:IdealLoadsAirSystem][IL1][outdoor_air_economizer_type] - "None" - Failed to match against any enum values.
   ** Severe  ** <root>[ZoneHVAC:IdealLoadsAirSystem][IL1][sensible_heat_recovery_effectiveness] - Value type "string" for input "Sensible" not permitted by 'type' constraint.
   **  Fatal  ** Errors occurred on processing input file. Preceding condition(s) cause termination.
   ...Summary of Errors that led to program termination:
   ..... Reference severe error count=5
   ..... Last severe error=<root>[ZoneHVAC:IdealLoadsAirSystem][IL1][sensible_heat_recovery_effectiveness] - Value type "string" for input "Sensible" not permitted by 'type' constraint.
   ************* Warning:  Node connection errors not checked - most system input has not been read (see previous warning).
   ************* Fatal error -- final processing.  Program exited before simulations began.  See previous error messages.
   ************* EnergyPlus Warmup Error Summary. During Warmup: 0 Warning; 0 Severe Errors.
   ************* EnergyPlus Sizing Error Summary. During Sizing: 0 Warning; 0 Severe Errors.
   ************* EnergyPlus Terminated--Fatal Error Detected. 0 Warning; 5 Severe Errors; Elapsed Time=00hr 00min  0.07sec
